Circuit: *HCMOS BERKELEY SPICE MODELS

Fatal Error: .option syntax error: You can't set a value to parameter "post"
