Circuit: * C:\Users\Ryan Smith\Documents\LTspiceXVII\74HC590.asc

WARNING: Less than two connections to node ~RCO.  This node is used by R15.
Direct Newton iteration for .op point succeeded.
Ignoring empty pin current: Ix(u1:vcc)
Ignoring empty pin current: Ix(u1:vcc)

Date: Tue Aug 17 20:02:16 2021
Total elapsed time: 7.224 seconds.

tnom = 27
temp = 27
method = modified trap
totiter = 81043
traniter = 81037
tranpoints = 40455
accept = 40308
rejected = 147
matrix size = 72
fillins = 0
solver = Normal
Thread vector: 7.6/6.1[2] 2.0/4.1[1] 2.4/3.9[1] 0.2/1.4[1]  2592/500
Matrix Compiler1: 1.98 KB object code size  1.0/0.5/[0.2]
Matrix Compiler2: 3.57 KB object code size  0.6/1.0/[0.3]

