Circuit: * C:\Users\Ryan Smith\Documents\LTspiceXVII\74HC590_test.asc

Direct Newton iteration for .op point succeeded.
Ignoring empty pin current: Ix(u1:a)
Ignoring empty pin current: Ix(u1:b)
Ignoring empty pin current: Ix(u1:y)
Ignoring empty pin current: Ix(u1:vgnd)
Ignoring empty pin current: Ix(u1:a)
Ignoring empty pin current: Ix(u1:b)
Ignoring empty pin current: Ix(u1:y)
Ignoring empty pin current: Ix(u1:vgnd)

Date: Thu Aug 19 22:44:43 2021
Total elapsed time: 2.983 seconds.

tnom = 27
temp = 27
method = modified trap
totiter = 97272
traniter = 97266
tranpoints = 48553
accept = 48410
rejected = 143
matrix size = 78
fillins = 0
solver = Normal
Thread vector: 3.3/2.6[2] 0.8/1.2[1] 1.0/1.3[1] 0.2/1.1[1]  2592/500
Matrix Compiler1: 2.18 KB object code size  0.5/0.3/[0.1]
Matrix Compiler2: 3.90 KB object code size  0.3/0.6/[0.2]

