Circuit: * C:\Users\Ryan Smith\Documents\LTspiceXVII\Draft3.asc

Instance "m:u1:14": Length shorter than recommended for a level 1 MOSFET.
Instance "m:u1:12": Length shorter than recommended for a level 1 MOSFET.
Direct Newton iteration failed to find .op point.  (Use ".option noopiter" to skip.)
Starting Gmin stepping
Increasing initial diagonal Gmin to 100
Increasing initial diagonal Gmin to 1000
Increasing initial diagonal Gmin to 10000
Increasing initial diagonal Gmin to 100000
Increasing initial diagonal Gmin to 1e+006
Initial Gmin=1e+006 failed
Gmin stepping failed

Starting source stepping with srcstepmethod=0
Source Step = 3.0303%
Source Step = 33.3333%
Source Step = 63.6364%
Source Step = 93.9394%
Source stepping succeeded in finding the operating point.


Date: Fri Jul 23 00:01:02 2021
Total elapsed time: 0.135 seconds.

tnom = 27
temp = 27
method = modified trap
totiter = 2767
traniter = 2114
tranpoints = 1048
accept = 1048
rejected = 0
matrix size = 49
fillins = 34
solver = Normal
Thread vector: 6.5/4.1[2] 0.8/1.6[1] 3.7/3.5[1] 0.2/1.1[1]  2592/500
Matrix Compiler1: 3.29 KB object code size  0.7/0.4/[0.2]
Matrix Compiler2: 4.26 KB object code size  0.4/0.6/[0.4]

