Circuit: * C:\Users\Ryan Smith\Documents\LTspiceXVII\Draft1.asc

Direct Newton iteration for .op point succeeded.

Date: Wed Jan 16 20:06:52 2019
Total elapsed time: 0.180 seconds.

tnom = 27
temp = 27
method = modified trap
totiter = 2270
traniter = 2256
tranpoints = 1087
accept = 1070
rejected = 17
matrix size = 55
fillins = 54
solver = Normal
Thread vector: 27.0/11.7[5] 9.4/3.4[5] 6.8/2.9[5] 0.3/1.2[1]  2592/500
Matrix Compiler1: 5.22 KB object code size  3.1/1.8/[0.5]
Matrix Compiler2: 6.15 KB object code size  1.5/1.9/[0.3]

