Circuit: * C:\Users\Ryan Smith\Documents\LTspiceXVII\Draft8.asc

WARNING: Less than two connections to node VOUT.  This node is used by B1.
.OP point found by inspection.

Date: Tue Aug 17 22:31:16 2021
Total elapsed time: 0.394 seconds.

tnom = 27
temp = 27
method = modified trap
totiter = 32032
traniter = 32032
tranpoints = 16017
accept = 16017
rejected = 0
matrix size = 4
fillins = 0
solver = Normal
Matrix Compiler1: off  [0.0]/0.0/0.0
Matrix Compiler2: 174 bytes object code size  0.0/0.0/[0.0]

