Circuit: * C:\Users\Ryan Smith\Documents\LTspiceXVII\Draft6.asc

Error: unknown token in: "v(vcc)-absdelay(v([~]oe),25n)"
Error: unknown token in: "v(vcc)-absdelay(v([~]clr),25n)"
Error: unknown token in: "v(vcc)-absdelay(v([~]clken),25n)"
WARNING: Less than two connections to node RCLK.  This node is used by V2.
Direct Newton iteration for .op point succeeded.
Ignoring empty pin current: Ix(u1:a)
Ignoring empty pin current: Ix(u1:b)
Ignoring empty pin current: Ix(u1:y)
Ignoring empty pin current: Ix(u1:vgnd)
Ignoring empty pin current: Ix(u1:a)
Ignoring empty pin current: Ix(u1:b)
Ignoring empty pin current: Ix(u1:y)
Ignoring empty pin current: Ix(u1:vgnd)

Date: Tue Aug 17 19:54:02 2021
Total elapsed time: 2.159 seconds.

tnom = 27
temp = 27
method = modified trap
totiter = 97260
traniter = 97254
tranpoints = 48545
accept = 48367
rejected = 178
matrix size = 70
fillins = 0
solver = Normal
Thread vector: 3.5/2.8[2] 0.8/1.3[1] 1.5/1.3[2] 0.1/0.9[1]  2592/500
Matrix Compiler1: 1.88 KB object code size  0.4/0.2/[0.1]
Matrix Compiler2: 3.45 KB object code size  0.2/0.5/[0.2]

