Circuit: * C:\Users\Ryan Smith\Documents\LTspiceXVII\Sequencer_SRAM_address_delaysIII.asc

Warning: Multiple definitions of model "dio2" Type: Diode
Warning: Multiple definitions of model "sw_hc2" Type: Switch
Warning: Multiple definitions of model "sw_hc1" Type: Switch
Warning: Multiple definitions of model "dio1" Type: Diode
WARNING: Less than two connections to node STEPCNT_LE.  This node is used by R:U8:OUT:OUT.
WARNING: Less than two connections to node VCF_LE.  This node is used by R:U5:OUT:OUT.
WARNING: Less than two connections to node NOISE_THRSH_LE.  This node is used by R:U13:OUT:OUT.
WARNING: Less than two connections to node NOTE_LE.  This node is used by R:U11:OUT:OUT.
Direct Newton iteration failed to find .op point.  (Use ".option noopiter" to skip.)
Starting Gmin stepping
Gmin = 10
Gmin = 1.07374
Gmin = 0.115292
Gmin = 0.0123794
Gmin = 0.00132923
Gmin = 0.000142725
Gmin = 1.5325e-005
Gmin = 1.6455e-006
Gmin = 1.76685e-007
Gmin = 1.89714e-008
Gmin = 2.03704e-009
Gmin = 2.18725e-010
Gmin = 2.34854e-011
Gmin = 2.52173e-012
Gmin = 2.70769e-013
Gmin = 0
Gmin stepping succeeded in finding the operating point.

Ignoring empty pin current: Ix(u9:vcc)
Ignoring empty pin current: Ix(u3:vcc)
Ignoring empty pin current: Ix(u10:vcc)
Ignoring empty pin current: Ix(u8:vcc)
Ignoring empty pin current: Ix(u1:vcc)
Ignoring empty pin current: Ix(u2:vcc)
Ignoring empty pin current: Ix(u4:vcc)
Ignoring empty pin current: Ix(u5:vcc)
Ignoring empty pin current: Ix(u6:vcc)
Ignoring empty pin current: Ix(u13:vcc)
Ignoring empty pin current: Ix(u14:vcc)
Ignoring empty pin current: Ix(u7:vcc)
Ignoring empty pin current: Ix(u11:vcc)
Ignoring empty pin current: Ix(u15:vcc)
Ignoring empty pin current: Ix(u16:vcc)
Ignoring empty pin current: Ix(u12:vcc)
Ignoring empty pin current: Ix(u9:vcc)
Ignoring empty pin current: Ix(u3:vcc)
Ignoring empty pin current: Ix(u10:vcc)
Ignoring empty pin current: Ix(u8:vcc)
Ignoring empty pin current: Ix(u1:vcc)
Ignoring empty pin current: Ix(u2:vcc)
Ignoring empty pin current: Ix(u4:vcc)
Ignoring empty pin current: Ix(u5:vcc)
Ignoring empty pin current: Ix(u6:vcc)
Ignoring empty pin current: Ix(u13:vcc)
Ignoring empty pin current: Ix(u14:vcc)
Ignoring empty pin current: Ix(u7:vcc)
Ignoring empty pin current: Ix(u11:vcc)
Ignoring empty pin current: Ix(u15:vcc)
Ignoring empty pin current: Ix(u16:vcc)
Ignoring empty pin current: Ix(u12:vcc)

Date: Thu Aug 19 19:12:39 2021
Total elapsed time: 0.609 seconds.

tnom = 27
temp = 27
method = modified trap
totiter = 6348
traniter = 5884
tranpoints = 2315
accept = 1987
rejected = 328
matrix size = 185
fillins = 19
solver = Normal
Thread vector: 9.8/6.5[5] 9.4/4.5[5] 4.4/2.1[5] 0.3/1.7[1]  2592/500
Matrix Compiler1: 6.18 KB object code size  3.7/2.2/[1.0]
Matrix Compiler2: 10.67 KB object code size  1.7/4.4/[0.7]

