Circuit: * C:\Users\Ryan Smith\Documents\LTspiceXVII\Sequencer_SRAM_address_delaysIV.asc

Warning: Multiple definitions of model "dio2" Type: Diode
Warning: Multiple definitions of model "sw_hc2" Type: Switch
Warning: Multiple definitions of model "sw_hc1" Type: Switch
Warning: Multiple definitions of model "dio1" Type: Diode
WARNING: Less than two connections to node STEPCNT_LE.  This node is used by R:U8:OUT:OUT.
WARNING: Less than two connections to node VCF_LE.  This node is used by R:U5:OUT:OUT.
WARNING: Less than two connections to node NOISE_THRSH_LE.  This node is used by R:U13:OUT:OUT.
WARNING: Less than two connections to node NOTE_LE.  This node is used by R:U11:OUT:OUT.
WARNING: Less than two connections to node NC_06.  This node is used by R:U19:15.
WARNING: Less than two connections to node EOW.  This node is used by D10.
Direct Newton iteration for .op point succeeded.
Ignoring empty pin current: Ix(u1:a)
Ignoring empty pin current: Ix(u1:b)
Ignoring empty pin current: Ix(u1:y)
Ignoring empty pin current: Ix(u1:vcc)
Ignoring empty pin current: Ix(u9:vcc)
Ignoring empty pin current: Ix(u3:vcc)
Ignoring empty pin current: Ix(u10:vcc)
Ignoring empty pin current: Ix(u8:vcc)
Ignoring empty pin current: Ix(u2:vcc)
Ignoring empty pin current: Ix(u4:vcc)
Ignoring empty pin current: Ix(u5:vcc)
Ignoring empty pin current: Ix(u6:vcc)
Ignoring empty pin current: Ix(u13:vcc)
Ignoring empty pin current: Ix(u14:vcc)
Ignoring empty pin current: Ix(u7:vcc)
Ignoring empty pin current: Ix(u11:vcc)
Ignoring empty pin current: Ix(u15:vcc)
Ignoring empty pin current: Ix(u16:vcc)
Ignoring empty pin current: Ix(u12:vcc)
Ignoring empty pin current: Ix(u17:vcc)
Ignoring empty pin current: Ix(u18:vcc)
Ignoring empty pin current: Ix(u20:vcc)
Ignoring empty pin current: Ix(u1:a)
Ignoring empty pin current: Ix(u1:b)
Ignoring empty pin current: Ix(u1:y)
Ignoring empty pin current: Ix(u1:vcc)
Ignoring empty pin current: Ix(u9:vcc)
Ignoring empty pin current: Ix(u3:vcc)
Ignoring empty pin current: Ix(u10:vcc)
Ignoring empty pin current: Ix(u8:vcc)
Ignoring empty pin current: Ix(u2:vcc)
Ignoring empty pin current: Ix(u4:vcc)
Ignoring empty pin current: Ix(u5:vcc)
Ignoring empty pin current: Ix(u6:vcc)
Ignoring empty pin current: Ix(u13:vcc)
Ignoring empty pin current: Ix(u14:vcc)
Ignoring empty pin current: Ix(u7:vcc)
Ignoring empty pin current: Ix(u11:vcc)
Ignoring empty pin current: Ix(u15:vcc)
Ignoring empty pin current: Ix(u16:vcc)
Ignoring empty pin current: Ix(u12:vcc)
Ignoring empty pin current: Ix(u17:vcc)
Ignoring empty pin current: Ix(u18:vcc)
Ignoring empty pin current: Ix(u20:vcc)

Date: Tue Aug 24 15:04:53 2021
Total elapsed time: 3.432 seconds.

tnom = 27
temp = 27
method = modified trap
totiter = 33073
traniter = 33023
tranpoints = 14913
accept = 14056
rejected = 857
matrix size = 279
fillins = 20
solver = Normal
Thread vector: 16.0/8.5[8] 13.4/8.9[8] 11.6/7.3[8] 0.5/2.5[1]  2592/500
Matrix Compiler1: 8.70 KB object code size  5.4/3.2/[1.4]
Matrix Compiler2: 15.39 KB object code size  3.9/7.0/[1.1]

