Circuit: * C:\Users\Ryan Smith\Documents\LTspiceXVII\SR LFO general idea.asc

Direct Newton iteration for .op point succeeded.

Date: Wed Jan 16 20:25:30 2019
Total elapsed time: 0.291 seconds.

tnom = 27
temp = 27
method = modified trap
totiter = 2496
traniter = 2482
tranpoints = 1176
accept = 1140
rejected = 36
matrix size = 55
fillins = 54
solver = Normal
Thread vector: 19.6/12.3[5] 10.1/3.4[5] 4.4/2.1[5] 0.3/1.3[1]  2592/500
Matrix Compiler1: 5.08 KB object code size  3.1/1.8/[0.5]
Matrix Compiler2: 5.88 KB object code size  1.4/2.1/[0.3]

