Circuit: * C:\Users\Ryan Smith\Documents\LTspiceXVII\trigger or clock input multiplier.asc

V4: Removing PWL point (0.5,0)
V4: Removing PWL point (1,0)
V4: Removing PWL point (1.5,0)
V4: Removing PWL point (2,0)
V4: Removing PWL point (2.5,0)
V4: Removing PWL point (3,0)
V4: Removing PWL point (3.5,0)
V4: Removing PWL point (4,0)
WARNING: Node N023 is floating.

WARNING: Less than two connections to node N023.  This node is used by C2.
Direct Newton iteration failed to find .op point.  (Use ".option noopiter" to skip.)
Starting Gmin stepping
Gmin = 10
Gmin = 1.07374
Gmin = 0.115292
Gmin = 0.0123794
Gmin = 0.00132923
Gmin = 0.000142725
Gmin = 1.5325e-005
Gmin = 1.6455e-006
Gmin = 1.76685e-007
Gmin = 1.89714e-008
Gmin = 2.03704e-009
Gmin = 2.18725e-010
Gmin = 2.34854e-011
Gmin = 2.52173e-012
Gmin = 2.70769e-013
Gmin = 0
Gmin stepping succeeded in finding the operating point.


Date: Mon Jan 28 01:32:48 2019
Total elapsed time: 0.364 seconds.

tnom = 27
temp = 27
method = modified trap
totiter = 12558
traniter = 12205
tranpoints = 3995
accept = 3362
rejected = 633
matrix size = 51
fillins = 52
solver = Normal
Thread vector: 31.5/9.9[5] 9.0/3.8[5] 4.0/2.2[5] 0.2/1.4[1]  2592/500
Matrix Compiler1: 4.81 KB object code size  2.1/1.2/[0.7]
Matrix Compiler2: 6.36 KB object code size  1.5/2.1/[0.4]

