Circuit: * C:\Users\Ryan Smith\Documents\LTspiceXVII\Sketches\Draft1.asc

Direct Newton iteration for .op point succeeded.

Date: Mon Jun 01 15:45:04 2020
Total elapsed time: 0.321 seconds.

tnom = 27
temp = 27
method = modified trap
totiter = 10877
traniter = 10856
tranpoints = 3475
accept = 2665
rejected = 810
matrix size = 14
fillins = 6
solver = Normal
Matrix Compiler1: 942 bytes object code size  0.2/0.1/[0.1]
Matrix Compiler2: 1.33 KB object code size  0.2/0.2/[0.1]

