Circuit: * C:\Users\Ryan Smith\Documents\LTspiceXVII\Sketches\Half wave attenuator for ADC.asc

WARNING: Less than two connections to node V_IN_S.  This node is used by V4.
Direct Newton iteration for .op point succeeded.

Date: Wed Jun 10 18:55:51 2020
Total elapsed time: 0.243 seconds.

tnom = 27
temp = 27
method = modified trap
totiter = 2593
traniter = 2560
tranpoints = 1222
accept = 1168
rejected = 54
matrix size = 22
fillins = 7
solver = Normal
Matrix Compiler1: 1.19 KB object code size  0.3/0.2/[0.1]
Matrix Compiler2: 1.97 KB object code size  0.2/0.3/[0.2]

