Circuit: * C:\Users\Ryan Smith\Documents\LTspiceXVII\Sketches\Peak detector for TIfPO.asc

Direct Newton iteration for .op point succeeded.

Date: Fri May 29 07:28:06 2020
Total elapsed time: 0.285 seconds.

tnom = 27
temp = 27
method = modified trap
totiter = 4414
traniter = 4377
tranpoints = 1597
accept = 1399
rejected = 198
matrix size = 22
fillins = 28
solver = Normal
Thread vector: 6.9/4.2[2] 1.4/1.5[1] 1.2/1.1[1] 0.1/0.9[1]  2592/500
Matrix Compiler1: 2.74 KB object code size  0.5/0.3/[0.2]
Matrix Compiler2: 2.77 KB object code size  0.3/0.4/[0.2]

