Circuit: * C:\Users\Ryan Smith\Documents\LTspiceXVII\examples\Educational\Draft3.asc

Direct Newton iteration for .op point succeeded.

Date: Wed May 27 06:22:14 2020
Total elapsed time: 0.835 seconds.

tnom = 27
temp = 27
method = modified trap
totiter = 71782
traniter = 71752
tranpoints = 26974
accept = 18603
rejected = 8371
matrix size = 22
fillins = 26
solver = Normal
Thread vector: 9.8/6.0[2] 3.7/2.3[2] 3.2/2.7[2] 0.2/1.5[1]  2592/500
Matrix Compiler1: 2.66 KB object code size  0.6/0.6/[0.3]
Matrix Compiler2: 2.75 KB object code size  0.5/0.7/[0.2]

