Circuit: * C:\Users\Ryan Smith\Documents\LTspiceXVII\examples\Educational\Draft1.asc

Direct Newton iteration for .op point succeeded.

Date: Fri Jun 07 04:00:11 2019
Total elapsed time: 0.136 seconds.

tnom = 27
temp = 27
method = modified trap
totiter = 2182
traniter = 2168
tranpoints = 1085
accept = 1052
rejected = 33
matrix size = 28
fillins = 18
solver = Normal
Matrix Compiler1: 2.74 KB object code size  0.5/0.3/[0.2]
Matrix Compiler2: 2.89 KB object code size  0.9/0.3/[0.2]

